
#======================================================================
# CRYSTAL DATA
#----------------------------------------------------------------------
data_VESTA_phase_1

_chemical_name_common                  'XCrySDen XSF file'
_cell_length_a                         10.887404
_cell_length_b                         10.887404
_cell_length_c                         10.887404
_cell_angle_alpha                      90.000000
_cell_angle_beta                       90.000000
_cell_angle_gamma                      90.000000
_cell_volume                           1290.544751
_space_group_name_H-M_alt              'P 1'
_space_group_IT_number                 1

loop_
_space_group_symop_operation_xyz
   'x, y, z'

loop_
   _atom_site_label
   _atom_site_occupancy
   _atom_site_fract_x
   _atom_site_fract_y
   _atom_site_fract_z
   _atom_site_adp_type
   _atom_site_U_iso_or_equiv
   _atom_site_type_symbol
   Si1        1.0     0.375246     0.375246     0.125657    Uiso  ? Si
   Si2        1.0     0.385622     0.385622     0.614378    Uiso  ? Si
   Si3        1.0     0.374978     0.873606     0.126394    Uiso  ? Si
   Si4        1.0     0.375246     0.874343     0.624754    Uiso  ? Si
   Si5        1.0     0.873606     0.374978     0.126394    Uiso  ? Si
   Si6        1.0     0.874343     0.375246     0.624754    Uiso  ? Si
   Si7        1.0     0.874944     0.874944     0.125056    Uiso  ? Si
   Si8        1.0     0.873606     0.873606     0.625022    Uiso  ? Si
   Si9        1.0    -0.000150     0.250429     0.250429    Uiso  ? Si
   Si10       1.0     0.000150     0.250429     0.749571    Uiso  ? Si
   Si11       1.0     0.000150     0.749571     0.250429    Uiso  ? Si
   Si12       1.0    -0.000150     0.749571     0.749571    Uiso  ? Si
   Si13       1.0     0.500362     0.254016     0.254016    Uiso  ? Si
   Si14       1.0     0.499638     0.254016     0.745984    Uiso  ? Si
   Si15       1.0     0.499638     0.745984     0.254016    Uiso  ? Si
   Si16       1.0     0.500362     0.745984     0.745984    Uiso  ? Si
   Si17       1.0     0.375246     0.125657     0.375246    Uiso  ? Si
   Si18       1.0     0.374978     0.126394     0.873606    Uiso  ? Si
   Si19       1.0     0.385622     0.614378     0.385622    Uiso  ? Si
   Si20       1.0     0.375246     0.624754     0.874343    Uiso  ? Si
   Si21       1.0     0.873606     0.126394     0.374978    Uiso  ? Si
   Si22       1.0     0.874944     0.125056     0.874944    Uiso  ? Si
   Si23       1.0     0.874343     0.624754     0.375246    Uiso  ? Si
   Si24       1.0     0.873606     0.625022     0.873606    Uiso  ? Si
   Si25       1.0     0.000000     0.000000     0.000000    Uiso  ? Si
   Si26       1.0     0.000000     0.000000     0.500000    Uiso  ? Si
   Si27       1.0     0.000000     0.500000     0.000000    Uiso  ? Si
   Si28       1.0     0.000000     0.500000     0.500000    Uiso  ? Si
   Si29       1.0     0.500000     0.000000     0.000000    Uiso  ? Si
   Si30       1.0     0.500000     0.000000     0.500000    Uiso  ? Si
   Si31       1.0     0.500000     0.500000     0.000000    Uiso  ? Si
   Si32       1.0     0.125657     0.375246     0.375246    Uiso  ? Si
   Si33       1.0     0.126394     0.374978     0.873606    Uiso  ? Si
   Si34       1.0     0.126394     0.873606     0.374978    Uiso  ? Si
   Si35       1.0     0.125056     0.874944     0.874944    Uiso  ? Si
   Si36       1.0     0.614378     0.385622     0.385622    Uiso  ? Si
   Si37       1.0     0.624754     0.375246     0.874343    Uiso  ? Si
   Si38       1.0     0.624754     0.874343     0.375246    Uiso  ? Si
   Si39       1.0     0.625022     0.873606     0.873606    Uiso  ? Si
   Si40       1.0     0.250429     0.250429    -0.000150    Uiso  ? Si
   Si41       1.0     0.254016     0.254016     0.500362    Uiso  ? Si
   Si42       1.0     0.250429     0.749571     0.000150    Uiso  ? Si
   Si43       1.0     0.254016     0.745984     0.499638    Uiso  ? Si
   Si44       1.0     0.749571     0.250429     0.000150    Uiso  ? Si
   Si45       1.0     0.745984     0.254016     0.499638    Uiso  ? Si
   Si46       1.0     0.749571     0.749571    -0.000150    Uiso  ? Si
   Si47       1.0     0.745984     0.745984     0.500362    Uiso  ? Si
   Si48       1.0     0.125056     0.125056     0.125056    Uiso  ? Si
   Si49       1.0     0.126394     0.126394     0.625022    Uiso  ? Si
   Si50       1.0     0.126394     0.625022     0.126394    Uiso  ? Si
   Si51       1.0     0.125657     0.624754     0.624754    Uiso  ? Si
   Si52       1.0     0.625022     0.126394     0.126394    Uiso  ? Si
   Si53       1.0     0.624754     0.125657     0.624754    Uiso  ? Si
   Si54       1.0     0.624754     0.624754     0.125657    Uiso  ? Si
   Si55       1.0     0.614378     0.614378     0.614378    Uiso  ? Si
   Si56       1.0     0.250429    -0.000150     0.250429    Uiso  ? Si
   Si57       1.0     0.250429     0.000150     0.749571    Uiso  ? Si
   Si58       1.0     0.254016     0.500362     0.254016    Uiso  ? Si
   Si59       1.0     0.254016     0.499638     0.745984    Uiso  ? Si
   Si60       1.0     0.749571     0.000150     0.250429    Uiso  ? Si
   Si61       1.0     0.749571    -0.000150     0.749571    Uiso  ? Si
   Si62       1.0     0.745984     0.499638     0.254016    Uiso  ? Si
   Si63       1.0     0.745984     0.500362     0.745984    Uiso  ? Si
